*SPEF "ieee 1481-1999"
*DESIGN "top"
*DATE "16:55:02 Wednesday December 18, 2024"
*VENDOR "The OpenROAD Project"
*PROGRAM "OpenROAD"
*VERSION "13116aa29cb37d21fc378bb4ce10389ebe285f98"
*DESIGN_FLOW "NAME_SCOPE LOCAL" "PIN_CAP NONE"
*DIVIDER /
*DELIMITER :
*BUS_DELIMITER []
*T_UNIT 1 NS
*C_UNIT 1 PF
*R_UNIT 1 OHM
*L_UNIT 1 HENRY

*NAME_MAP
*1 _000_
*2 _001_
*3 _002_
*4 _003_
*5 _004_
*6 _005_
*7 _006_
*8 _007_
*9 _008_
*10 _009_
*11 _010_
*12 _011_
*13 _012_
*14 _013_
*15 _014_
*16 _015_
*17 _016_
*18 _017_
*19 _018_
*20 _019_
*21 _020_
*22 _021_
*23 _022_
*24 _023_
*25 _024_
*26 _025_
*27 _026_
*28 _027_
*29 _028_
*30 _029_
*31 _030_
*32 _031_
*33 _032_
*34 _033_
*35 _034_
*36 _035_
*37 _036_
*38 _037_
*39 _038_
*40 _039_
*41 _040_
*42 _041_
*43 _042_
*44 _043_
*45 _044_
*46 _045_
*47 _046_
*48 _047_
*49 _048_
*50 _049_
*51 _050_
*52 _051_
*53 _052_
*54 _053_
*55 _054_
*56 _055_
*57 _056_
*58 _057_
*59 _058_
*60 _059_
*61 _060_
*62 _061_
*63 _062_
*64 _063_
*65 _064_
*66 _065_
*67 _066_
*68 _067_
*69 _068_
*70 _069_
*71 _070_
*72 _071_
*73 _072_
*74 _073_
*75 _074_
*76 _075_
*77 _076_
*78 _077_
*79 _078_
*80 _079_
*81 _080_
*82 _081_
*83 _082_
*84 _083_
*85 _084_
*86 _085_
*87 _086_
*88 _087_
*89 _088_
*90 _089_
*91 _090_
*92 _091_
*93 _092_
*94 _093_
*95 _094_
*96 _095_
*97 _096_
*98 _097_
*99 _098_
*100 _099_
*101 _100_
*102 _101_
*103 _102_
*104 _103_
*105 _104_
*106 _105_
*107 _106_
*108 _107_
*109 _108_
*110 _109_
*111 _110_
*112 _111_
*113 _112_
*114 _113_
*115 _114_
*116 _115_
*117 _116_
*118 _117_
*119 _118_
*120 _119_
*121 _120_
*122 _121_
*123 _122_
*124 _123_
*125 _124_
*126 blocco3\.fsm\.q\[0\]
*127 blocco3\.fsm\.q\[10\]
*128 blocco3\.fsm\.q\[11\]
*129 blocco3\.fsm\.q\[1\]
*130 blocco3\.fsm\.q\[2\]
*131 blocco3\.fsm\.q\[3\]
*132 blocco3\.fsm\.q\[4\]
*133 blocco3\.fsm\.q\[5\]
*134 blocco3\.fsm\.q\[6\]
*135 blocco3\.fsm\.q\[7\]
*136 blocco3\.fsm\.q\[8\]
*137 blocco3\.fsm\.q\[9\]
*138 blocco3\.fsm\.soglia\[0\]
*139 blocco3\.fsm\.soglia\[10\]
*140 blocco3\.fsm\.soglia\[11\]
*141 blocco3\.fsm\.soglia\[1\]
*142 blocco3\.fsm\.soglia\[2\]
*143 blocco3\.fsm\.soglia\[3\]
*144 blocco3\.fsm\.soglia\[4\]
*145 blocco3\.fsm\.soglia\[5\]
*146 blocco3\.fsm\.soglia\[6\]
*147 blocco3\.fsm\.soglia\[7\]
*148 blocco3\.fsm\.soglia\[8\]
*149 blocco3\.fsm\.soglia\[9\]
*150 blocco3\.fsm\.stato_corrente\[0\]
*151 blocco3\.fsm\.stato_corrente\[1\]
*152 blocco3\.fsm\.stato_corrente\[2\]
*153 clk
*154 din
*155 enable
*156 rst
*157 spike
*158 x[0]
*159 x[10]
*160 x[1]
*161 x[2]
*162 x[3]
*163 x[4]
*164 x[5]
*165 x[6]
*166 x[7]
*167 x[8]
*168 x[9]
*169 z\[0\]
*170 z\[10\]
*171 z\[1\]
*172 z\[2\]
*173 z\[3\]
*174 z\[4\]
*175 z\[5\]
*176 z\[6\]
*177 z\[7\]
*178 z\[8\]
*179 z\[9\]
*182 net1
*183 net2
*184 net3
*185 net4
*186 net5
*187 net6
*188 net7
*189 net8
*190 net9
*191 net10
*192 net11
*193 net12
*194 net13
*195 net14
*196 net15
*197 net16
*198 net17
*199 net18
*200 net19
*201 net20
*202 net21
*203 net22
*204 net23
*205 net24
*206 net25
*207 net26
*208 net27
*209 net28
*210 net29
*211 net30
*212 net31
*213 net32
*214 net33
*215 net34
*216 net35
*217 net36
*218 net37
*219 net38
*220 net39
*221 net40
*222 net41
*223 net42
*224 net43
*225 net44
*226 net45
*227 net46
*228 net47
*229 net48
*230 net49
*231 net50
*232 net51
*233 net52
*234 net53
*235 net54
*236 net55
*237 net56
*238 net57
*239 net58
*240 net59
*241 net60
*242 net61
*243 net62
*244 clk_regs
*245 clknet_0_clk
*246 clknet_1_0__leaf_clk
*247 clknet_1_1__leaf_clk
*248 clknet_0_clk_regs
*249 clknet_1_0__leaf_clk_regs
*250 clknet_1_1__leaf_clk_regs
*251 delaynet_0_my_clock
*252 delaynet_1_my_clock
*253 delaynet_2_my_clock
*254 net63
*255 net64
*256 net65
*257 net66
*258 net67
*259 net68
*260 net69
*261 net70
*262 _125_
*263 _126_
*264 _127_
*265 _128_
*266 _129_
*267 _130_
*268 _131_
*269 _132_
*270 _133_
*271 _134_
*272 _135_
*273 _136_
*274 _137_
*275 _138_
*276 _139_
*277 _140_
*278 _141_
*279 _142_
*280 _143_
*281 _144_
*282 _145_
*283 _146_
*284 _147_
*285 _148_
*286 _149_
*287 _150_
*288 _151_
*289 _152_
*290 _153_
*291 _154_
*292 _155_
*293 _156_
*294 _157_
*295 _158_
*296 _159_
*297 _160_
*298 _161_
*299 _162_
*300 _163_
*301 _164_
*302 _165_
*303 _166_
*304 _167_
*305 _168_
*306 _169_
*307 _170_
*308 _171_
*309 _172_
*310 _173_
*311 _174_
*312 _175_
*313 _176_
*314 _177_
*315 _178_
*316 _179_
*317 _180_
*318 _181_
*319 _182_
*320 _183_
*321 _184_
*322 _185_
*323 _186_
*324 _187_
*325 _188_
*326 _189_
*327 _190_
*328 _191_
*329 _192_
*330 _193_
*331 _194_
*332 _195_
*333 _196_
*334 _197_
*335 _198_
*336 _199_
*337 _200_
*338 _201_
*339 _202_
*340 _203_
*341 _204_
*342 _205_
*343 _206_
*344 _207_
*345 _208_
*346 _209_
*347 _210_
*348 _211_
*349 _212_
*350 _213_
*351 _214_
*352 _215_
*353 _216_
*354 _217_
*355 _218_
*356 _219_
*357 _220_
*358 _221_
*359 _222_
*360 _223_
*361 _224_
*362 _225_
*363 _226_
*364 _227_
*365 _228_
*366 _229_
*367 _230_
*368 _231_
*369 _232_
*370 _233_
*371 _234_
*372 _235_
*373 blocco1
*374 blocco2
*375 blocco3\.fsm\.soglia\[0\]\$_DFF_P_
*376 blocco3\.fsm\.soglia\[10\]\$_SDFFE_PP0P_
*377 blocco3\.fsm\.soglia\[11\]\$_SDFFE_PP0P_
*378 blocco3\.fsm\.soglia\[1\]\$_SDFFE_PP0P_
*379 blocco3\.fsm\.soglia\[2\]\$_SDFFE_PP0P_
*380 blocco3\.fsm\.soglia\[3\]\$_SDFFE_PP0P_
*381 blocco3\.fsm\.soglia\[4\]\$_SDFFE_PP0P_
*382 blocco3\.fsm\.soglia\[5\]\$_SDFFE_PP0P_
*383 blocco3\.fsm\.soglia\[6\]\$_SDFFE_PP0P_
*384 blocco3\.fsm\.soglia\[7\]\$_SDFFE_PP0P_
*385 blocco3\.fsm\.soglia\[8\]\$_SDFFE_PP0P_
*386 blocco3\.fsm\.soglia\[9\]\$_SDFFE_PP0P_
*387 blocco3\.fsm\.stato_corrente\[0\]\$_SDFF_PP0_
*388 blocco3\.fsm\.stato_corrente\[1\]\$_SDFF_PP0_
*389 blocco3\.fsm\.stato_corrente\[2\]\$_SDFF_PP0_
*390 PHY_EDGE_ROW_0_Right_0
*391 PHY_EDGE_ROW_1_Right_1
*392 PHY_EDGE_ROW_2_Right_2
*393 PHY_EDGE_ROW_3_Right_3
*394 PHY_EDGE_ROW_69_Right_4
*395 PHY_EDGE_ROW_70_Right_5
*396 PHY_EDGE_ROW_71_Right_6
*397 PHY_EDGE_ROW_72_Right_7
*398 PHY_EDGE_ROW_4_2_Right_8
*399 PHY_EDGE_ROW_5_2_Right_9
*400 PHY_EDGE_ROW_6_2_Right_10
*401 PHY_EDGE_ROW_7_2_Right_11
*402 PHY_EDGE_ROW_8_3_Right_12
*403 PHY_EDGE_ROW_9_3_Right_13
*404 PHY_EDGE_ROW_10_3_Right_14
*405 PHY_EDGE_ROW_11_3_Right_15
*406 PHY_EDGE_ROW_12_3_Right_16
*407 PHY_EDGE_ROW_13_3_Right_17
*408 PHY_EDGE_ROW_14_3_Right_18
*409 PHY_EDGE_ROW_15_3_Right_19
*410 PHY_EDGE_ROW_16_3_Right_20
*411 PHY_EDGE_ROW_17_3_Right_21
*412 PHY_EDGE_ROW_18_3_Right_22
*413 PHY_EDGE_ROW_19_3_Right_23
*414 PHY_EDGE_ROW_20_3_Right_24
*415 PHY_EDGE_ROW_21_3_Right_25
*416 PHY_EDGE_ROW_22_3_Right_26
*417 PHY_EDGE_ROW_23_3_Right_27
*418 PHY_EDGE_ROW_24_3_Right_28
*419 PHY_EDGE_ROW_25_3_Right_29
*420 PHY_EDGE_ROW_26_3_Right_30
*421 PHY_EDGE_ROW_27_3_Right_31
*422 PHY_EDGE_ROW_28_3_Right_32
*423 PHY_EDGE_ROW_29_3_Right_33
*424 PHY_EDGE_ROW_30_3_Right_34
*425 PHY_EDGE_ROW_31_3_Right_35
*426 PHY_EDGE_ROW_32_3_Right_36
*427 PHY_EDGE_ROW_33_3_Right_37
*428 PHY_EDGE_ROW_34_3_Right_38
*429 PHY_EDGE_ROW_35_3_Right_39
*430 PHY_EDGE_ROW_36_3_Right_40
*431 PHY_EDGE_ROW_37_3_Right_41
*432 PHY_EDGE_ROW_38_3_Right_42
*433 PHY_EDGE_ROW_39_3_Right_43
*434 PHY_EDGE_ROW_40_3_Right_44
*435 PHY_EDGE_ROW_41_3_Right_45
*436 PHY_EDGE_ROW_42_3_Right_46
*437 PHY_EDGE_ROW_43_3_Right_47
*438 PHY_EDGE_ROW_44_3_Right_48
*439 PHY_EDGE_ROW_45_3_Right_49
*440 PHY_EDGE_ROW_46_3_Right_50
*441 PHY_EDGE_ROW_47_3_Right_51
*442 PHY_EDGE_ROW_48_3_Right_52
*443 PHY_EDGE_ROW_49_3_Right_53
*444 PHY_EDGE_ROW_50_3_Right_54
*445 PHY_EDGE_ROW_51_3_Right_55
*446 PHY_EDGE_ROW_52_3_Right_56
*447 PHY_EDGE_ROW_53_3_Right_57
*448 PHY_EDGE_ROW_54_3_Right_58
*449 PHY_EDGE_ROW_55_3_Right_59
*450 PHY_EDGE_ROW_56_3_Right_60
*451 PHY_EDGE_ROW_57_3_Right_61
*452 PHY_EDGE_ROW_58_3_Right_62
*453 PHY_EDGE_ROW_59_3_Right_63
*454 PHY_EDGE_ROW_60_3_Right_64
*455 PHY_EDGE_ROW_61_3_Right_65
*456 PHY_EDGE_ROW_62_3_Right_66
*457 PHY_EDGE_ROW_63_3_Right_67
*458 PHY_EDGE_ROW_64_3_Right_68
*459 PHY_EDGE_ROW_65_2_Right_69
*460 PHY_EDGE_ROW_66_2_Right_70
*461 PHY_EDGE_ROW_67_2_Right_71
*462 PHY_EDGE_ROW_68_2_Right_72
*463 PHY_EDGE_ROW_0_Left_73
*464 PHY_EDGE_ROW_1_Left_74
*465 PHY_EDGE_ROW_2_Left_75
*466 PHY_EDGE_ROW_3_Left_76
*467 PHY_EDGE_ROW_5_1_Left_77
*468 PHY_EDGE_ROW_6_1_Left_78
*469 PHY_EDGE_ROW_7_1_Left_79
*470 PHY_EDGE_ROW_8_1_Left_80
*471 PHY_EDGE_ROW_9_1_Left_81
*472 PHY_EDGE_ROW_10_1_Left_82
*473 PHY_EDGE_ROW_11_1_Left_83
*474 PHY_EDGE_ROW_12_1_Left_84
*475 PHY_EDGE_ROW_13_1_Left_85
*476 PHY_EDGE_ROW_14_1_Left_86
*477 PHY_EDGE_ROW_15_1_Left_87
*478 PHY_EDGE_ROW_16_1_Left_88
*479 PHY_EDGE_ROW_17_1_Left_89
*480 PHY_EDGE_ROW_18_1_Left_90
*481 PHY_EDGE_ROW_19_1_Left_91
*482 PHY_EDGE_ROW_20_1_Left_92
*483 PHY_EDGE_ROW_21_1_Left_93
*484 PHY_EDGE_ROW_22_1_Left_94
*485 PHY_EDGE_ROW_23_1_Left_95
*486 PHY_EDGE_ROW_24_1_Left_96
*487 PHY_EDGE_ROW_25_1_Left_97
*488 PHY_EDGE_ROW_26_1_Left_98
*489 PHY_EDGE_ROW_27_1_Left_99
*490 PHY_EDGE_ROW_28_1_Left_100
*491 PHY_EDGE_ROW_29_1_Left_101
*492 PHY_EDGE_ROW_30_1_Left_102
*493 PHY_EDGE_ROW_31_1_Left_103
*494 PHY_EDGE_ROW_32_1_Left_104
*495 PHY_EDGE_ROW_33_1_Left_105
*496 PHY_EDGE_ROW_34_1_Left_106
*497 PHY_EDGE_ROW_35_1_Left_107
*498 PHY_EDGE_ROW_36_1_Left_108
*499 PHY_EDGE_ROW_37_1_Left_109
*500 PHY_EDGE_ROW_38_1_Left_110
*501 PHY_EDGE_ROW_39_1_Left_111
*502 PHY_EDGE_ROW_40_1_Left_112
*503 PHY_EDGE_ROW_41_1_Left_113
*504 PHY_EDGE_ROW_42_1_Left_114
*505 PHY_EDGE_ROW_43_1_Left_115
*506 PHY_EDGE_ROW_44_1_Left_116
*507 PHY_EDGE_ROW_45_1_Left_117
*508 PHY_EDGE_ROW_46_1_Left_118
*509 PHY_EDGE_ROW_47_1_Left_119
*510 PHY_EDGE_ROW_48_1_Left_120
*511 PHY_EDGE_ROW_49_1_Left_121
*512 PHY_EDGE_ROW_50_1_Left_122
*513 PHY_EDGE_ROW_51_1_Left_123
*514 PHY_EDGE_ROW_52_1_Left_124
*515 PHY_EDGE_ROW_53_1_Left_125
*516 PHY_EDGE_ROW_54_1_Left_126
*517 PHY_EDGE_ROW_55_1_Left_127
*518 PHY_EDGE_ROW_56_1_Left_128
*519 PHY_EDGE_ROW_57_1_Left_129
*520 PHY_EDGE_ROW_58_1_Left_130
*521 PHY_EDGE_ROW_59_1_Left_131
*522 PHY_EDGE_ROW_60_1_Left_132
*523 PHY_EDGE_ROW_61_1_Left_133
*524 PHY_EDGE_ROW_62_1_Left_134
*525 PHY_EDGE_ROW_63_1_Left_135
*526 PHY_EDGE_ROW_64_1_Left_136
*527 PHY_EDGE_ROW_65_1_Left_137
*528 PHY_EDGE_ROW_66_1_Left_138
*529 PHY_EDGE_ROW_67_1_Left_139
*530 PHY_EDGE_ROW_68_1_Left_140
*531 PHY_EDGE_ROW_69_Left_141
*532 PHY_EDGE_ROW_70_Left_142
*533 PHY_EDGE_ROW_71_Left_143
*534 PHY_EDGE_ROW_72_Left_144
*535 PHY_EDGE_ROW_4_1_Left_145
*536 PHY_EDGE_ROW_8_2_Left_146
*537 PHY_EDGE_ROW_9_2_Left_147
*538 PHY_EDGE_ROW_10_2_Left_148
*539 PHY_EDGE_ROW_11_2_Left_149
*540 PHY_EDGE_ROW_12_2_Left_150
*541 PHY_EDGE_ROW_13_2_Left_151
*542 PHY_EDGE_ROW_14_2_Left_152
*543 PHY_EDGE_ROW_15_2_Left_153
*544 PHY_EDGE_ROW_16_2_Left_154
*545 PHY_EDGE_ROW_17_2_Left_155
*546 PHY_EDGE_ROW_18_2_Left_156
*547 PHY_EDGE_ROW_19_2_Left_157
*548 PHY_EDGE_ROW_20_2_Left_158
*549 PHY_EDGE_ROW_21_2_Left_159
*550 PHY_EDGE_ROW_22_2_Left_160
*551 PHY_EDGE_ROW_23_2_Left_161
*552 PHY_EDGE_ROW_24_2_Left_162
*553 PHY_EDGE_ROW_25_2_Left_163
*554 PHY_EDGE_ROW_26_2_Left_164
*555 PHY_EDGE_ROW_27_2_Left_165
*556 PHY_EDGE_ROW_28_2_Left_166
*557 PHY_EDGE_ROW_29_2_Left_167
*558 PHY_EDGE_ROW_30_2_Left_168
*559 PHY_EDGE_ROW_31_2_Left_169
*560 PHY_EDGE_ROW_32_2_Left_170
*561 PHY_EDGE_ROW_33_2_Left_171
*562 PHY_EDGE_ROW_34_2_Left_172
*563 PHY_EDGE_ROW_35_2_Left_173
*564 PHY_EDGE_ROW_36_2_Left_174
*565 PHY_EDGE_ROW_37_2_Left_175
*566 PHY_EDGE_ROW_38_2_Left_176
*567 PHY_EDGE_ROW_39_2_Left_177
*568 PHY_EDGE_ROW_40_2_Left_178
*569 PHY_EDGE_ROW_41_2_Left_179
*570 PHY_EDGE_ROW_42_2_Left_180
*571 PHY_EDGE_ROW_43_2_Left_181
*572 PHY_EDGE_ROW_44_2_Left_182
*573 PHY_EDGE_ROW_45_2_Left_183
*574 PHY_EDGE_ROW_46_2_Left_184
*575 PHY_EDGE_ROW_47_2_Left_185
*576 PHY_EDGE_ROW_48_2_Left_186
*577 PHY_EDGE_ROW_49_2_Left_187
*578 PHY_EDGE_ROW_50_2_Left_188
*579 PHY_EDGE_ROW_51_2_Left_189
*580 PHY_EDGE_ROW_52_2_Left_190
*581 PHY_EDGE_ROW_53_2_Left_191
*582 PHY_EDGE_ROW_54_2_Left_192
*583 PHY_EDGE_ROW_55_2_Left_193
*584 PHY_EDGE_ROW_56_2_Left_194
*585 PHY_EDGE_ROW_57_2_Left_195
*586 PHY_EDGE_ROW_58_2_Left_196
*587 PHY_EDGE_ROW_59_2_Left_197
*588 PHY_EDGE_ROW_60_2_Left_198
*589 PHY_EDGE_ROW_61_2_Left_199
*590 PHY_EDGE_ROW_62_2_Left_200
*591 PHY_EDGE_ROW_63_2_Left_201
*592 PHY_EDGE_ROW_64_2_Left_202
*593 PHY_EDGE_ROW_8_1_Right_203
*594 PHY_EDGE_ROW_9_1_Right_204
*595 PHY_EDGE_ROW_10_1_Right_205
*596 PHY_EDGE_ROW_11_1_Right_206
*597 PHY_EDGE_ROW_12_1_Right_207
*598 PHY_EDGE_ROW_13_1_Right_208
*599 PHY_EDGE_ROW_14_1_Right_209
*600 PHY_EDGE_ROW_15_1_Right_210
*601 PHY_EDGE_ROW_16_1_Right_211
*602 PHY_EDGE_ROW_17_1_Right_212
*603 PHY_EDGE_ROW_18_1_Right_213
*604 PHY_EDGE_ROW_19_1_Right_214
*605 PHY_EDGE_ROW_20_1_Right_215
*606 PHY_EDGE_ROW_21_1_Right_216
*607 PHY_EDGE_ROW_22_1_Right_217
*608 PHY_EDGE_ROW_23_1_Right_218
*609 PHY_EDGE_ROW_24_1_Right_219
*610 PHY_EDGE_ROW_25_1_Right_220
*611 PHY_EDGE_ROW_26_1_Right_221
*612 PHY_EDGE_ROW_27_1_Right_222
*613 PHY_EDGE_ROW_28_1_Right_223
*614 PHY_EDGE_ROW_29_1_Right_224
*615 PHY_EDGE_ROW_30_1_Right_225
*616 PHY_EDGE_ROW_31_1_Right_226
*617 PHY_EDGE_ROW_32_1_Right_227
*618 PHY_EDGE_ROW_33_1_Right_228
*619 PHY_EDGE_ROW_34_1_Right_229
*620 PHY_EDGE_ROW_35_1_Right_230
*621 PHY_EDGE_ROW_36_1_Right_231
*622 PHY_EDGE_ROW_37_1_Right_232
*623 PHY_EDGE_ROW_38_1_Right_233
*624 PHY_EDGE_ROW_39_1_Right_234
*625 PHY_EDGE_ROW_40_1_Right_235
*626 PHY_EDGE_ROW_41_1_Right_236
*627 PHY_EDGE_ROW_42_1_Right_237
*628 PHY_EDGE_ROW_43_1_Right_238
*629 PHY_EDGE_ROW_44_1_Right_239
*630 PHY_EDGE_ROW_45_1_Right_240
*631 PHY_EDGE_ROW_46_1_Right_241
*632 PHY_EDGE_ROW_47_1_Right_242
*633 PHY_EDGE_ROW_48_1_Right_243
*634 PHY_EDGE_ROW_49_1_Right_244
*635 PHY_EDGE_ROW_50_1_Right_245
*636 PHY_EDGE_ROW_51_1_Right_246
*637 PHY_EDGE_ROW_52_1_Right_247
*638 PHY_EDGE_ROW_53_1_Right_248
*639 PHY_EDGE_ROW_54_1_Right_249
*640 PHY_EDGE_ROW_55_1_Right_250
*641 PHY_EDGE_ROW_56_1_Right_251
*642 PHY_EDGE_ROW_57_1_Right_252
*643 PHY_EDGE_ROW_58_1_Right_253
*644 PHY_EDGE_ROW_59_1_Right_254
*645 PHY_EDGE_ROW_60_1_Right_255
*646 PHY_EDGE_ROW_61_1_Right_256
*647 PHY_EDGE_ROW_62_1_Right_257
*648 PHY_EDGE_ROW_63_1_Right_258
*649 PHY_EDGE_ROW_64_1_Right_259
*650 PHY_EDGE_ROW_4_2_Left_260
*651 PHY_EDGE_ROW_5_2_Left_261
*652 PHY_EDGE_ROW_6_2_Left_262
*653 PHY_EDGE_ROW_7_2_Left_263
*654 PHY_EDGE_ROW_8_3_Left_264
*655 PHY_EDGE_ROW_9_3_Left_265
*656 PHY_EDGE_ROW_10_3_Left_266
*657 PHY_EDGE_ROW_11_3_Left_267
*658 PHY_EDGE_ROW_12_3_Left_268
*659 PHY_EDGE_ROW_13_3_Left_269
*660 PHY_EDGE_ROW_14_3_Left_270
*661 PHY_EDGE_ROW_15_3_Left_271
*662 PHY_EDGE_ROW_16_3_Left_272
*663 PHY_EDGE_ROW_17_3_Left_273
*664 PHY_EDGE_ROW_18_3_Left_274
*665 PHY_EDGE_ROW_19_3_Left_275
*666 PHY_EDGE_ROW_20_3_Left_276
*667 PHY_EDGE_ROW_21_3_Left_277
*668 PHY_EDGE_ROW_22_3_Left_278
*669 PHY_EDGE_ROW_23_3_Left_279
*670 PHY_EDGE_ROW_24_3_Left_280
*671 PHY_EDGE_ROW_25_3_Left_281
*672 PHY_EDGE_ROW_26_3_Left_282
*673 PHY_EDGE_ROW_27_3_Left_283
*674 PHY_EDGE_ROW_28_3_Left_284
*675 PHY_EDGE_ROW_29_3_Left_285
*676 PHY_EDGE_ROW_30_3_Left_286
*677 PHY_EDGE_ROW_31_3_Left_287
*678 PHY_EDGE_ROW_32_3_Left_288
*679 PHY_EDGE_ROW_33_3_Left_289
*680 PHY_EDGE_ROW_34_3_Left_290
*681 PHY_EDGE_ROW_35_3_Left_291
*682 PHY_EDGE_ROW_36_3_Left_292
*683 PHY_EDGE_ROW_37_3_Left_293
*684 PHY_EDGE_ROW_38_3_Left_294
*685 PHY_EDGE_ROW_39_3_Left_295
*686 PHY_EDGE_ROW_40_3_Left_296
*687 PHY_EDGE_ROW_41_3_Left_297
*688 PHY_EDGE_ROW_42_3_Left_298
*689 PHY_EDGE_ROW_43_3_Left_299
*690 PHY_EDGE_ROW_44_3_Left_300
*691 PHY_EDGE_ROW_45_3_Left_301
*692 PHY_EDGE_ROW_46_3_Left_302
*693 PHY_EDGE_ROW_47_3_Left_303
*694 PHY_EDGE_ROW_48_3_Left_304
*695 PHY_EDGE_ROW_49_3_Left_305
*696 PHY_EDGE_ROW_50_3_Left_306
*697 PHY_EDGE_ROW_51_3_Left_307
*698 PHY_EDGE_ROW_52_3_Left_308
*699 PHY_EDGE_ROW_53_3_Left_309
*700 PHY_EDGE_ROW_54_3_Left_310
*701 PHY_EDGE_ROW_55_3_Left_311
*702 PHY_EDGE_ROW_56_3_Left_312
*703 PHY_EDGE_ROW_57_3_Left_313
*704 PHY_EDGE_ROW_58_3_Left_314
*705 PHY_EDGE_ROW_59_3_Left_315
*706 PHY_EDGE_ROW_60_3_Left_316
*707 PHY_EDGE_ROW_61_3_Left_317
*708 PHY_EDGE_ROW_62_3_Left_318
*709 PHY_EDGE_ROW_63_3_Left_319
*710 PHY_EDGE_ROW_64_3_Left_320
*711 PHY_EDGE_ROW_65_2_Left_321
*712 PHY_EDGE_ROW_66_2_Left_322
*713 PHY_EDGE_ROW_67_2_Left_323
*714 PHY_EDGE_ROW_68_2_Left_324
*715 PHY_EDGE_ROW_5_1_Right_325
*716 PHY_EDGE_ROW_6_1_Right_326
*717 PHY_EDGE_ROW_7_1_Right_327
*718 PHY_EDGE_ROW_65_1_Right_328
*719 PHY_EDGE_ROW_66_1_Right_329
*720 PHY_EDGE_ROW_67_1_Right_330
*721 PHY_EDGE_ROW_68_1_Right_331
*722 PHY_EDGE_ROW_4_1_Right_332
*723 PHY_EDGE_ROW_8_2_Right_333
*724 PHY_EDGE_ROW_9_2_Right_334
*725 PHY_EDGE_ROW_10_2_Right_335
*726 PHY_EDGE_ROW_11_2_Right_336
*727 PHY_EDGE_ROW_12_2_Right_337
*728 PHY_EDGE_ROW_13_2_Right_338
*729 PHY_EDGE_ROW_14_2_Right_339
*730 PHY_EDGE_ROW_15_2_Right_340
*731 PHY_EDGE_ROW_16_2_Right_341
*732 PHY_EDGE_ROW_17_2_Right_342
*733 PHY_EDGE_ROW_18_2_Right_343
*734 PHY_EDGE_ROW_19_2_Right_344
*735 PHY_EDGE_ROW_20_2_Right_345
*736 PHY_EDGE_ROW_21_2_Right_346
*737 PHY_EDGE_ROW_22_2_Right_347
*738 PHY_EDGE_ROW_23_2_Right_348
*739 PHY_EDGE_ROW_24_2_Right_349
*740 PHY_EDGE_ROW_25_2_Right_350
*741 PHY_EDGE_ROW_26_2_Right_351
*742 PHY_EDGE_ROW_27_2_Right_352
*743 PHY_EDGE_ROW_28_2_Right_353
*744 PHY_EDGE_ROW_29_2_Right_354
*745 PHY_EDGE_ROW_30_2_Right_355
*746 PHY_EDGE_ROW_31_2_Right_356
*747 PHY_EDGE_ROW_32_2_Right_357
*748 PHY_EDGE_ROW_33_2_Right_358
*749 PHY_EDGE_ROW_34_2_Right_359
*750 PHY_EDGE_ROW_35_2_Right_360
*751 PHY_EDGE_ROW_36_2_Right_361
*752 PHY_EDGE_ROW_37_2_Right_362
*753 PHY_EDGE_ROW_38_2_Right_363
*754 PHY_EDGE_ROW_39_2_Right_364
*755 PHY_EDGE_ROW_40_2_Right_365
*756 PHY_EDGE_ROW_41_2_Right_366
*757 PHY_EDGE_ROW_42_2_Right_367
*758 PHY_EDGE_ROW_43_2_Right_368
*759 PHY_EDGE_ROW_44_2_Right_369
*760 PHY_EDGE_ROW_45_2_Right_370
*761 PHY_EDGE_ROW_46_2_Right_371
*762 PHY_EDGE_ROW_47_2_Right_372
*763 PHY_EDGE_ROW_48_2_Right_373
*764 PHY_EDGE_ROW_49_2_Right_374
*765 PHY_EDGE_ROW_50_2_Right_375
*766 PHY_EDGE_ROW_51_2_Right_376
*767 PHY_EDGE_ROW_52_2_Right_377
*768 PHY_EDGE_ROW_53_2_Right_378
*769 PHY_EDGE_ROW_54_2_Right_379
*770 PHY_EDGE_ROW_55_2_Right_380
*771 PHY_EDGE_ROW_56_2_Right_381
*772 PHY_EDGE_ROW_57_2_Right_382
*773 PHY_EDGE_ROW_58_2_Right_383
*774 PHY_EDGE_ROW_59_2_Right_384
*775 PHY_EDGE_ROW_60_2_Right_385
*776 PHY_EDGE_ROW_61_2_Right_386
*777 PHY_EDGE_ROW_62_2_Right_387
*778 PHY_EDGE_ROW_63_2_Right_388
*779 PHY_EDGE_ROW_64_2_Right_389
*780 TAP_TAPCELL_ROW_0_390
*781 TAP_TAPCELL_ROW_0_391
*782 TAP_TAPCELL_ROW_0_392
*783 TAP_TAPCELL_ROW_0_393
*784 TAP_TAPCELL_ROW_0_394
*785 TAP_TAPCELL_ROW_0_395
*786 TAP_TAPCELL_ROW_0_396
*787 TAP_TAPCELL_ROW_0_397
*788 TAP_TAPCELL_ROW_0_398
*789 TAP_TAPCELL_ROW_0_399
*790 TAP_TAPCELL_ROW_0_400
*791 TAP_TAPCELL_ROW_1_401
*792 TAP_TAPCELL_ROW_1_402
*793 TAP_TAPCELL_ROW_1_403
*794 TAP_TAPCELL_ROW_1_404
*795 TAP_TAPCELL_ROW_1_405
*796 TAP_TAPCELL_ROW_2_406
*797 TAP_TAPCELL_ROW_2_407
*798 TAP_TAPCELL_ROW_2_408
*799 TAP_TAPCELL_ROW_2_409
*800 TAP_TAPCELL_ROW_2_410
*801 TAP_TAPCELL_ROW_2_411
*802 TAP_TAPCELL_ROW_3_412
*803 TAP_TAPCELL_ROW_3_413
*804 TAP_TAPCELL_ROW_3_414
*805 TAP_TAPCELL_ROW_3_415
*806 TAP_TAPCELL_ROW_3_416
*807 TAP_TAPCELL_ROW_3_417
*808 TAP_TAPCELL_ROW_3_418
*809 TAP_TAPCELL_ROW_3_419
*810 TAP_TAPCELL_ROW_3_420
*811 TAP_TAPCELL_ROW_3_421
*812 TAP_TAPCELL_ROW_3_422
*813 TAP_TAPCELL_ROW_5_1_423
*814 TAP_TAPCELL_ROW_5_1_424
*815 TAP_TAPCELL_ROW_5_1_425
*816 TAP_TAPCELL_ROW_6_1_426
*817 TAP_TAPCELL_ROW_6_1_427
*818 TAP_TAPCELL_ROW_6_1_428
*819 TAP_TAPCELL_ROW_7_1_429
*820 TAP_TAPCELL_ROW_7_1_430
*821 TAP_TAPCELL_ROW_7_1_431
*822 TAP_TAPCELL_ROW_7_1_432
*823 TAP_TAPCELL_ROW_7_1_433
*824 TAP_TAPCELL_ROW_7_1_434
*825 TAP_TAPCELL_ROW_65_1_435
*826 TAP_TAPCELL_ROW_65_1_436
*827 TAP_TAPCELL_ROW_65_1_437
*828 TAP_TAPCELL_ROW_65_1_438
*829 TAP_TAPCELL_ROW_65_1_439
*830 TAP_TAPCELL_ROW_65_1_440
*831 TAP_TAPCELL_ROW_66_1_441
*832 TAP_TAPCELL_ROW_66_1_442
*833 TAP_TAPCELL_ROW_66_1_443
*834 TAP_TAPCELL_ROW_67_1_444
*835 TAP_TAPCELL_ROW_67_1_445
*836 TAP_TAPCELL_ROW_67_1_446
*837 TAP_TAPCELL_ROW_68_1_447
*838 TAP_TAPCELL_ROW_68_1_448
*839 TAP_TAPCELL_ROW_68_1_449
*840 TAP_TAPCELL_ROW_69_450
*841 TAP_TAPCELL_ROW_69_451
*842 TAP_TAPCELL_ROW_69_452
*843 TAP_TAPCELL_ROW_69_453
*844 TAP_TAPCELL_ROW_69_454
*845 TAP_TAPCELL_ROW_69_455
*846 TAP_TAPCELL_ROW_69_456
*847 TAP_TAPCELL_ROW_69_457
*848 TAP_TAPCELL_ROW_69_458
*849 TAP_TAPCELL_ROW_69_459
*850 TAP_TAPCELL_ROW_69_460
*851 TAP_TAPCELL_ROW_70_461
*852 TAP_TAPCELL_ROW_70_462
*853 TAP_TAPCELL_ROW_70_463
*854 TAP_TAPCELL_ROW_70_464
*855 TAP_TAPCELL_ROW_70_465
*856 TAP_TAPCELL_ROW_70_466
*857 TAP_TAPCELL_ROW_71_467
*858 TAP_TAPCELL_ROW_71_468
*859 TAP_TAPCELL_ROW_71_469
*860 TAP_TAPCELL_ROW_71_470
*861 TAP_TAPCELL_ROW_71_471
*862 TAP_TAPCELL_ROW_72_472
*863 TAP_TAPCELL_ROW_72_473
*864 TAP_TAPCELL_ROW_72_474
*865 TAP_TAPCELL_ROW_72_475
*866 TAP_TAPCELL_ROW_72_476
*867 TAP_TAPCELL_ROW_72_477
*868 TAP_TAPCELL_ROW_72_478
*869 TAP_TAPCELL_ROW_72_479
*870 TAP_TAPCELL_ROW_72_480
*871 TAP_TAPCELL_ROW_72_481
*872 TAP_TAPCELL_ROW_72_482
*873 TAP_TAPCELL_ROW_4_1_483
*874 TAP_TAPCELL_ROW_4_1_484
*875 TAP_TAPCELL_ROW_4_1_485
*876 hold1
*877 hold2
*878 hold3
*879 hold4
*880 hold5
*881 hold6
*882 hold7
*883 hold8
*884 hold9
*885 hold10
*886 hold11
*887 hold12
*888 hold13
*889 hold14
*890 hold15
*891 hold16
*892 hold17
*893 hold18
*894 hold19
*895 hold20
*896 hold21
*897 hold22
*898 hold23
*899 hold24
*900 hold25
*901 hold26
*902 hold27
*903 hold28
*904 hold29
*905 hold30
*906 hold31
*907 hold32
*908 hold33
*909 hold34
*910 hold35
*911 hold36
*912 hold37
*913 hold38
*914 hold39
*915 hold40
*916 hold41
*917 hold42
*918 hold43
*919 hold44
*920 hold45
*921 hold46
*922 hold47
*923 hold48
*924 hold49
*925 hold50
*926 hold51
*927 hold52
*928 hold53
*929 hold54
*930 hold55
*931 hold56
*932 hold57
*933 hold58
*934 hold59
*935 hold60
*936 hold61
*937 hold62
*938 clkbuf_regs_0_my_clock
*939 clkbuf_0_clk
*940 clkbuf_1_0__f_clk
*941 clkbuf_1_1__f_clk
*942 clkload0
*943 clkbuf_0_clk_regs
*944 clkbuf_1_0__f_clk_regs
*945 clkbuf_1_1__f_clk_regs
*946 clkload1
*947 delaybuf_0_my_clock
*948 delaybuf_1_my_clock
*949 delaybuf_2_my_clock
*950 hold63
*951 hold64
*952 hold65
*953 hold66
*954 hold67
*955 hold68
*956 hold69
*957 hold70
*958 FILLER_0_0_1
*959 FILLER_0_0_33
*960 FILLER_0_0_65
*961 FILLER_0_0_81
*962 FILLER_0_0_90
*963 FILLER_0_0_122
*964 FILLER_0_0_154
*965 FILLER_0_0_170
*966 FILLER_0_0_179
*967 FILLER_0_0_211
*968 FILLER_0_0_243
*969 FILLER_0_0_259
*970 FILLER_0_0_268
*971 FILLER_0_0_300
*972 FILLER_0_0_332
*973 FILLER_0_0_348
*974 FILLER_0_0_357
*975 FILLER_0_0_389
*976 FILLER_0_0_421
*977 FILLER_0_0_437
*978 FILLER_0_0_446
*979 FILLER_0_0_478
*980 FILLER_0_0_510
*981 FILLER_0_0_526
*982 FILLER_0_0_535
*983 FILLER_0_0_567
*984 FILLER_0_0_599
*985 FILLER_0_0_615
*986 FILLER_0_0_624
*987 FILLER_0_0_656
*988 FILLER_0_0_688
*989 FILLER_0_0_704
*990 FILLER_0_0_713
*991 FILLER_0_0_745
*992 FILLER_0_0_777
*993 FILLER_0_0_793
*994 FILLER_0_0_802
*995 FILLER_0_0_834
*996 FILLER_0_0_866
*997 FILLER_0_0_882
*998 FILLER_0_0_891
*999 FILLER_0_0_923
*1000 FILLER_0_0_955
*1001 FILLER_0_0_971
*1002 FILLER_0_0_980
*1003 FILLER_0_0_1012
*1004 FILLER_0_0_1044
*1005 FILLER_0_1_1
*1006 FILLER_0_1_33
*1007 FILLER_0_1_65
*1008 FILLER_0_1_97
*1009 FILLER_0_1_129
*1010 FILLER_0_1_161
*1011 FILLER_0_1_177
*1012 FILLER_0_1_179
*1013 FILLER_0_1_211
*1014 FILLER_0_1_243
*1015 FILLER_0_1_275
*1016 FILLER_0_1_307
*1017 FILLER_0_1_339
*1018 FILLER_0_1_355
*1019 FILLER_0_1_357
*1020 FILLER_0_1_389
*1021 FILLER_0_1_421
*1022 FILLER_0_1_453
*1023 FILLER_0_1_485
*1024 FILLER_0_1_517
*1025 FILLER_0_1_533
*1026 FILLER_0_1_535
*1027 FILLER_0_1_567
*1028 FILLER_0_1_599
*1029 FILLER_0_1_631
*1030 FILLER_0_1_663
*1031 FILLER_0_1_695
*1032 FILLER_0_1_711
*1033 FILLER_0_1_713
*1034 FILLER_0_1_745
*1035 FILLER_0_1_777
*1036 FILLER_0_1_809
*1037 FILLER_0_1_841
*1038 FILLER_0_1_873
*1039 FILLER_0_1_889
*1040 FILLER_0_1_891
*1041 FILLER_0_1_923
*1042 FILLER_0_1_955
*1043 FILLER_0_1_987
*1044 FILLER_0_1_1019
*1045 FILLER_0_1_1035
*1046 FILLER_0_1_1043
*1047 FILLER_0_1_1045
*1048 FILLER_0_2_1
*1049 FILLER_0_2_33
*1050 FILLER_0_2_65
*1051 FILLER_0_2_81
*1052 FILLER_0_2_90
*1053 FILLER_0_2_122
*1054 FILLER_0_2_154
*1055 FILLER_0_2_186
*1056 FILLER_0_2_218
*1057 FILLER_0_2_250
*1058 FILLER_0_2_266
*1059 FILLER_0_2_268
*1060 FILLER_0_2_300
*1061 FILLER_0_2_332
*1062 FILLER_0_2_364
*1063 FILLER_0_2_396
*1064 FILLER_0_2_428
*1065 FILLER_0_2_444
*1066 FILLER_0_2_446
*1067 FILLER_0_2_478
*1068 FILLER_0_2_510
*1069 FILLER_0_2_542
*1070 FILLER_0_2_574
*1071 FILLER_0_2_606
*1072 FILLER_0_2_622
*1073 FILLER_0_2_624
*1074 FILLER_0_2_656
*1075 FILLER_0_2_688
*1076 FILLER_0_2_720
*1077 FILLER_0_2_752
*1078 FILLER_0_2_784
*1079 FILLER_0_2_800
*1080 FILLER_0_2_802
*1081 FILLER_0_2_834
*1082 FILLER_0_2_866
*1083 FILLER_0_2_898
*1084 FILLER_0_2_930
*1085 FILLER_0_2_962
*1086 FILLER_0_2_978
*1087 FILLER_0_2_980
*1088 FILLER_0_2_1012
*1089 FILLER_0_2_1044
*1090 FILLER_0_3_1
*1091 FILLER_0_3_33
*1092 FILLER_0_3_65
*1093 FILLER_0_3_81
*1094 FILLER_0_3_90
*1095 FILLER_0_3_122
*1096 FILLER_0_3_154
*1097 FILLER_0_3_170
*1098 FILLER_0_3_179
*1099 FILLER_0_3_211
*1100 FILLER_0_3_243
*1101 FILLER_0_3_259
*1102 FILLER_0_3_268
*1103 FILLER_0_3_300
*1104 FILLER_0_3_332
*1105 FILLER_0_3_348
*1106 FILLER_0_3_357
*1107 FILLER_0_3_389
*1108 FILLER_0_3_421
*1109 FILLER_0_3_437
*1110 FILLER_0_3_446
*1111 FILLER_0_3_478
*1112 FILLER_0_3_510
*1113 FILLER_0_3_526
*1114 FILLER_0_3_535
*1115 FILLER_0_3_567
*1116 FILLER_0_3_599
*1117 FILLER_0_3_615
*1118 FILLER_0_3_624
*1119 FILLER_0_3_656
*1120 FILLER_0_3_688
*1121 FILLER_0_3_704
*1122 FILLER_0_3_713
*1123 FILLER_0_3_745
*1124 FILLER_0_3_753
*1125 FILLER_0_3_757
*1126 FILLER_0_3_759
*1127 FILLER_0_3_763
*1128 FILLER_0_3_795
*1129 FILLER_0_3_799
*1130 FILLER_0_3_802
*1131 FILLER_0_3_834
*1132 FILLER_0_3_866
*1133 FILLER_0_3_882
*1134 FILLER_0_3_891
*1135 FILLER_0_3_923
*1136 FILLER_0_3_955
*1137 FILLER_0_3_971
*1138 FILLER_0_3_980
*1139 FILLER_0_3_1012
*1140 FILLER_0_3_1044
*1141 FILLER_0_4_1
*1142 FILLER_0_4_33
*1143 FILLER_0_4_65
*1144 FILLER_0_4_81
*1145 FILLER_0_4_90
*1146 FILLER_0_4_122
*1147 FILLER_0_4_154
*1148 FILLER_0_4_186
*1149 FILLER_0_4_218
*1150 FILLER_0_4_250
*1151 FILLER_0_4_266
*1152 FILLER_0_4_268
*1153 FILLER_0_4_300
*1154 FILLER_0_4_332
*1155 FILLER_0_4_364
*1156 FILLER_0_4_396
*1157 FILLER_0_4_428
*1158 FILLER_0_4_444
*1159 FILLER_0_4_446
*1160 FILLER_0_4_478
*1161 FILLER_0_4_510
*1162 FILLER_0_4_526
*1163 FILLER_0_4_534
*1164 FILLER_0_4_536
*1165 FILLER_0_4_1008
*1166 FILLER_0_4_1040
*1167 FILLER_0_4_1044
*1168 FILLER_0_5_1
*1169 FILLER_0_5_33
*1170 FILLER_0_5_65
*1171 FILLER_0_5_97
*1172 FILLER_0_5_129
*1173 FILLER_0_5_161
*1174 FILLER_0_5_177
*1175 FILLER_0_5_179
*1176 FILLER_0_5_211
*1177 FILLER_0_5_243
*1178 FILLER_0_5_275
*1179 FILLER_0_5_307
*1180 FILLER_0_5_339
*1181 FILLER_0_5_355
*1182 FILLER_0_5_357
*1183 FILLER_0_5_389
*1184 FILLER_0_5_421
*1185 FILLER_0_5_453
*1186 FILLER_0_5_485
*1187 FILLER_0_5_517
*1188 FILLER_0_5_533
*1189 FILLER_0_5_535
*1190 FILLER_0_5_1008
*1191 FILLER_0_5_1040
*1192 FILLER_0_5_1044
*1193 FILLER_0_6_1
*1194 FILLER_0_6_33
*1195 FILLER_0_6_65
*1196 FILLER_0_6_81
*1197 FILLER_0_6_90
*1198 FILLER_0_6_122
*1199 FILLER_0_6_154
*1200 FILLER_0_6_186
*1201 FILLER_0_6_218
*1202 FILLER_0_6_250
*1203 FILLER_0_6_266
*1204 FILLER_0_6_268
*1205 FILLER_0_6_300
*1206 FILLER_0_6_332
*1207 FILLER_0_6_364
*1208 FILLER_0_6_396
*1209 FILLER_0_6_428
*1210 FILLER_0_6_444
*1211 FILLER_0_6_446
*1212 FILLER_0_6_478
*1213 FILLER_0_6_510
*1214 FILLER_0_6_526
*1215 FILLER_0_6_534
*1216 FILLER_0_6_536
*1217 FILLER_0_6_1008
*1218 FILLER_0_6_1040
*1219 FILLER_0_6_1044
*1220 FILLER_0_7_1
*1221 FILLER_0_7_33
*1222 FILLER_0_7_65
*1223 FILLER_0_7_81
*1224 FILLER_0_7_90
*1225 FILLER_0_7_122
*1226 FILLER_0_7_154
*1227 FILLER_0_7_170
*1228 FILLER_0_7_179
*1229 FILLER_0_7_211
*1230 FILLER_0_7_243
*1231 FILLER_0_7_259
*1232 FILLER_0_7_268
*1233 FILLER_0_7_300
*1234 FILLER_0_7_332
*1235 FILLER_0_7_348
*1236 FILLER_0_7_357
*1237 FILLER_0_7_389
*1238 FILLER_0_7_421
*1239 FILLER_0_7_437
*1240 FILLER_0_7_446
*1241 FILLER_0_7_478
*1242 FILLER_0_7_510
*1243 FILLER_0_7_526
*1244 FILLER_0_7_535
*1245 FILLER_0_7_1008
*1246 FILLER_0_7_1040
*1247 FILLER_0_7_1044
*1248 FILLER_0_8_1
*1249 FILLER_0_8_33
*1250 FILLER_0_8_456
*1251 FILLER_0_8_488
*1252 FILLER_0_8_520
*1253 FILLER_0_8_536
*1254 FILLER_0_8_1008
*1255 FILLER_0_8_1040
*1256 FILLER_0_8_1044
*1257 FILLER_0_9_1
*1258 FILLER_0_9_33
*1259 FILLER_0_9_456
*1260 FILLER_0_9_488
*1261 FILLER_0_9_520
*1262 FILLER_0_9_536
*1263 FILLER_0_9_1008
*1264 FILLER_0_9_1040
*1265 FILLER_0_9_1044
*1266 FILLER_0_10_1
*1267 FILLER_0_10_33
*1268 FILLER_0_10_456
*1269 FILLER_0_10_488
*1270 FILLER_0_10_520
*1271 FILLER_0_10_536
*1272 FILLER_0_10_1008
*1273 FILLER_0_10_1040
*1274 FILLER_0_10_1044
*1275 FILLER_0_11_1
*1276 FILLER_0_11_33
*1277 FILLER_0_11_456
*1278 FILLER_0_11_488
*1279 FILLER_0_11_520
*1280 FILLER_0_11_536
*1281 FILLER_0_11_1008
*1282 FILLER_0_11_1040
*1283 FILLER_0_11_1044
*1284 FILLER_0_12_1
*1285 FILLER_0_12_33
*1286 FILLER_0_12_456
*1287 FILLER_0_12_488
*1288 FILLER_0_12_520
*1289 FILLER_0_12_528
*1290 FILLER_0_12_532
*1291 FILLER_0_12_1008
*1292 FILLER_0_12_1040
*1293 FILLER_0_12_1044
*1294 FILLER_0_13_1
*1295 FILLER_0_13_33
*1296 FILLER_0_13_456
*1297 FILLER_0_13_488
*1298 FILLER_0_13_520
*1299 FILLER_0_13_536
*1300 FILLER_0_13_1008
*1301 FILLER_0_13_1040
*1302 FILLER_0_13_1044
*1303 FILLER_0_14_1
*1304 FILLER_0_14_33
*1305 FILLER_0_14_456
*1306 FILLER_0_14_488
*1307 FILLER_0_14_520
*1308 FILLER_0_14_536
*1309 FILLER_0_14_1008
*1310 FILLER_0_14_1040
*1311 FILLER_0_14_1044
*1312 FILLER_0_15_1
*1313 FILLER_0_15_33
*1314 FILLER_0_15_456
*1315 FILLER_0_15_488
*1316 FILLER_0_15_520
*1317 FILLER_0_15_536
*1318 FILLER_0_15_1008
*1319 FILLER_0_15_1040
*1320 FILLER_0_15_1044
*1321 FILLER_0_16_1
*1322 FILLER_0_16_33
*1323 FILLER_0_16_456
*1324 FILLER_0_16_488
*1325 FILLER_0_16_520
*1326 FILLER_0_16_536
*1327 FILLER_0_16_1008
*1328 FILLER_0_16_1040
*1329 FILLER_0_16_1044
*1330 FILLER_0_17_1
*1331 FILLER_0_17_33
*1332 FILLER_0_17_456
*1333 FILLER_0_17_488
*1334 FILLER_0_17_520
*1335 FILLER_0_17_536
*1336 FILLER_0_17_1008
*1337 FILLER_0_17_1040
*1338 FILLER_0_17_1044
*1339 FILLER_0_18_1
*1340 FILLER_0_18_33